#RADIOSS STARTER
#---1----|----2----|----3----|----4----|----5----|----6----|----7----|----8----|----9----|---10----|
##
/BEGIN
#Runname                                                                        
4ELEM1POLYG                                                                     
#   Invers      Irun
      2026         0
#    Input_mass_unit   Input_length_unit     Input_time_unit
                  kg                   m                   s
#     Work_mass_unit    Work_length_unit      Work_time_unit
                  kg                   m                   s
#---1----|----2----|----3----|----4----|----5----|----6----|----7----|----8----|----9----|---10----|
/TITLE
CUT CELL TEST 2D
#---1----|----2----|----3----|----4----|----5----|----6----|----7----|----8----|----9----|---10----|
#2d plane strain
/ANALY
         2
#---1----|----2----|----3----|----4----|----5----|----6----|----7----|----8----|----9----|---10----|
/NODE
#  node_ID                  Xc                  Yc                  Zc
         1                 0.0                 0.0                 0.0
         2                 0.0                 1.0                 0.0
         3                 0.0                 2.0                 0.0
         4                 0.0                 0.0                 1.0
         5                 0.0                 1.0                 1.0
         6                 0.0                 2.0                 1.0
         7                 0.0                 0.0                 2.0
         8                 0.0                 1.0                 2.0
         9                 0.0                 2.0                 2.0
#polygon nodes
       101                 0.0                 0.5                 0.5
       102                 0.0                 1.5                 0.5
       103                 0.0                 1.5                 1.5
       104                 0.0                 0.5                 1.5
#---1----|----2----|----3----|----4----|----5----|----6----|----7----|----8----|----9----|---10----|
/PART/1
EULERIAN PART
#      pid       mid
         1        71
#---1----|----2----|----3----|----4----|----5----|----6----|----7----|----8----|----9----|---10----|
/QUAD/1
# shell_ID  node_ID1  node_ID2  node_ID3  node_ID4                         phi_s               Thick
         1         1         2         5         4                                                  
         2         2         3         6         5                                                  
         3         4         5         8         7                                                  
         4         5         6         9         8                                                  
#---1----|----2----|----3----|----4----|----5----|----6----|----7----|----8----|----9----|---10----|
/MAT/LAW20/1
bimat cut cell
# blank

#  mat_IDs    Volume_Fractions
        71                 0.0
        72                 0.0
#---1----|----2----|----3----|----4----|----5----|----6----|----7----|----8----|----9----|---10----|
/MAT/HYDRO/71
submaterial_1
#              RHO_I
                 1.0
#                Knu                Pmin
                   0                   0
#---1----|----2----|----3----|----4----|----5----|----6----|----7----|----8----|----9----|---10----|
/EOS/IDEAL-GAS/71
submaterial_1 - eos
#              GAMMA                  P0                 PSH                  T0                
                 1.4                 0.1                   0               300.0  
#---1----|----2----|----3----|----4----|----5----|----6----|----7----|----8----|----9----|---10----|
/MAT/HYDRO/72
submaterial_1
#              RHO_I
                 1.0
#                Knu                Pmin
                   0                   0
#---1----|----2----|----3----|----4----|----5----|----6----|----7----|----8----|----9----|---10----|
/EOS/IDEAL-GAS/72
submaterial_1 - eos
#              GAMMA                  P0                 PSH                  T0                
                 1.4                 0.1                   0               300.0  
#---1----|----2----|----3----|----4----|----5----|----6----|----7----|----8----|----9----|---10----|
/PROP/SOLID/1
Property - Euler Framework
#                         Iale
                             2



#---1----|----2----|----3----|----4----|----5----|----6----|----7----|----8----|----9----|---10----|
/ALE/SOLVER/MULTIMAT
#    mmale  polyg_id
         3       456
#---1----|----2----|----3----|----4----|----5----|----6----|----7----|----8----|----9----|---10----|
/GRNOD/NODENS/456
polygon - ordered list of nodes
       101       102       103       104
#---1----|----2----|----3----|----4----|----5----|----6----|----7----|----8----|----9----|---10----|
/END
